notebook_tutorials/synthetic_net_opendss/master_sample_46.dss
clear
new circuit.synthetic_net basekv=157.6864406779661 pu=1.0 phases=3
edit Vsource.source bus1=bus_68.1.2.3

!---------------- LINES ----------------

new linecode.LCode_0 nphases=1 rmatrix=[1.136489] xmatrix=[1.312952] units=km
new line.line_0 bus1=bus_0.1 bus2=bus_1.1 linecode=LCode_0 length=1.0 units=km
new linecode.LCode_1 nphases=1 rmatrix=[0.738186] xmatrix=[1.521113] units=km
new line.line_1 bus1=bus_0.1 bus2=bus_2.1 linecode=LCode_1 length=1.0 units=km
new linecode.LCode_2 nphases=1 rmatrix=[0.893113] xmatrix=[1.242115] units=km
new line.line_2 bus1=bus_3.1 bus2=bus_4.1 linecode=LCode_2 length=1.0 units=km
new linecode.LCode_3 nphases=1 rmatrix=[1.115184] xmatrix=[1.242115] units=km
new line.line_3 bus1=bus_2.1 bus2=bus_4.1 linecode=LCode_3 length=1.0 units=km
new linecode.LCode_4 nphases=1 rmatrix=[0.453240] xmatrix=[1.242115] units=km
new line.line_4 bus1=bus_4.1 bus2=bus_5.1 linecode=LCode_4 length=1.0 units=km
new linecode.LCode_5 nphases=1 rmatrix=[0.513752] xmatrix=[1.357917] units=km
new line.line_5 bus1=bus_5.1 bus2=bus_6.1 linecode=LCode_5 length=1.0 units=km
new linecode.LCode_6 nphases=1 rmatrix=[0.705714] xmatrix=[1.242115] units=km
new line.line_6 bus1=bus_7.1 bus2=bus_8.1 linecode=LCode_6 length=1.0 units=km
new linecode.LCode_7 nphases=1 rmatrix=[0.644898] xmatrix=[1.433795] units=km
new line.line_7 bus1=bus_8.1 bus2=bus_9.1 linecode=LCode_7 length=1.0 units=km
new linecode.LCode_8 nphases=1 rmatrix=[0.598250] xmatrix=[1.373426] units=km
new line.line_8 bus1=bus_3.1 bus2=bus_10.1 linecode=LCode_8 length=1.0 units=km
new linecode.LCode_9 nphases=1 rmatrix=[1.065547] xmatrix=[1.242115] units=km
new line.line_9 bus1=bus_4.1 bus2=bus_10.1 linecode=LCode_9 length=1.0 units=km
new linecode.LCode_10 nphases=1 rmatrix=[0.677281] xmatrix=[1.476421] units=km
new line.line_10 bus1=bus_10.1 bus2=bus_11.1 linecode=LCode_10 length=1.0 units=km
new linecode.LCode_11 nphases=1 rmatrix=[0.668532] xmatrix=[1.242444] units=km
new line.line_11 bus1=bus_1.1 bus2=bus_11.1 linecode=LCode_11 length=1.0 units=km
new linecode.LCode_12 nphases=1 rmatrix=[0.656210] xmatrix=[1.387464] units=km
new line.line_12 bus1=bus_2.1 bus2=bus_11.1 linecode=LCode_12 length=1.0 units=km
new linecode.LCode_13 nphases=1 rmatrix=[0.589356] xmatrix=[1.242115] units=km
new line.line_13 bus1=bus_6.1 bus2=bus_11.1 linecode=LCode_13 length=1.0 units=km
new linecode.LCode_16 nphases=1 rmatrix=[0.502795] xmatrix=[1.242115] units=km
new line.line_16 bus1=bus_12.2 bus2=bus_14.2 linecode=LCode_16 length=1.0 units=km
new linecode.LCode_17 nphases=1 rmatrix=[1.068932] xmatrix=[1.491231] units=km
new line.line_17 bus1=bus_13.2 bus2=bus_14.2 linecode=LCode_17 length=1.0 units=km
new linecode.LCode_18 nphases=1 rmatrix=[0.528070] xmatrix=[1.242115] units=km
new line.line_18 bus1=bus_11.1 bus2=bus_15.1 linecode=LCode_18 length=1.0 units=km
new linecode.LCode_20 nphases=1 rmatrix=[0.648328] xmatrix=[1.258787] units=km
new line.line_20 bus1=bus_15.1 bus2=bus_16.1 linecode=LCode_20 length=1.0 units=km
new linecode.LCode_21 nphases=1 rmatrix=[0.765769] xmatrix=[1.338561] units=km
new line.line_21 bus1=bus_16.1 bus2=bus_17.1 linecode=LCode_21 length=1.0 units=km
new linecode.LCode_23 nphases=1 rmatrix=[0.591006] xmatrix=[1.242115] units=km
new line.line_23 bus1=bus_18.2 bus2=bus_19.2 linecode=LCode_23 length=1.0 units=km
new linecode.LCode_24 nphases=1 rmatrix=[0.801733] xmatrix=[1.312935] units=km
new line.line_24 bus1=bus_14.2 bus2=bus_18.2 linecode=LCode_24 length=1.0 units=km
new linecode.LCode_25 nphases=2 rmatrix=[0.573242 | 0.059160 0.573242] xmatrix=[1.242115 | 1.024695 1.242115] units=km
new line.line_25 bus1=bus_19.2.3 bus2=bus_20.2.3 linecode=LCode_25 length=1.0 units=km
new linecode.LCode_26 nphases=2 rmatrix=[1.328725 | 0.059160 1.328725] xmatrix=[1.242115 | 1.024695 1.242115] units=km
new line.line_26 bus1=bus_20.2.3 bus2=bus_21.2.3 linecode=LCode_26 length=1.0 units=km
new linecode.LCode_27 nphases=2 rmatrix=[0.877770 | 0.059160 0.877770] xmatrix=[1.242115 | 1.024695 1.242115] units=km
new line.line_27 bus1=bus_21.2.3 bus2=bus_22.2.3 linecode=LCode_27 length=1.0 units=km
new linecode.LCode_28 nphases=2 rmatrix=[0.965261 | 0.059160 0.965261] xmatrix=[1.303437 | 1.024695 1.303437] units=km
new line.line_28 bus1=bus_22.2.3 bus2=bus_23.2.3 linecode=LCode_28 length=1.0 units=km
new linecode.LCode_29 nphases=2 rmatrix=[1.243319 | 0.059160 1.243319] xmatrix=[1.242115 | 1.024695 1.242115] units=km
new line.line_29 bus1=bus_22.2.3 bus2=bus_24.2.3 linecode=LCode_29 length=1.0 units=km
new linecode.LCode_30 nphases=2 rmatrix=[0.773848 | 0.059160 0.773848] xmatrix=[1.271020 | 1.024695 1.271020] units=km
new line.line_30 bus1=bus_24.2.3 bus2=bus_26.2.3 linecode=LCode_30 length=1.0 units=km
new linecode.LCode_31 nphases=2 rmatrix=[1.081749 | 0.059160 1.081749] xmatrix=[1.561733 | 1.024695 1.561733] units=km
new line.line_31 bus1=bus_26.2.3 bus2=bus_27.2.3 linecode=LCode_31 length=1.0 units=km
new linecode.LCode_33 nphases=1 rmatrix=[0.393711] xmatrix=[1.242115] units=km
new line.line_33 bus1=bus_7.1 bus2=bus_29.1 linecode=LCode_33 length=1.0 units=km
new linecode.LCode_35 nphases=1 rmatrix=[0.539867] xmatrix=[1.599829] units=km
new line.line_35 bus1=bus_16.1 bus2=bus_30.1 linecode=LCode_35 length=1.0 units=km
new linecode.LCode_36 nphases=1 rmatrix=[1.313622] xmatrix=[1.551171] units=km
new line.line_36 bus1=bus_28.1 bus2=bus_30.1 linecode=LCode_36 length=1.0 units=km
new linecode.LCode_38 nphases=1 rmatrix=[1.073445] xmatrix=[1.365780] units=km
new line.line_38 bus1=bus_30.1 bus2=bus_31.1 linecode=LCode_38 length=1.0 units=km
new linecode.LCode_40 nphases=1 rmatrix=[0.945012] xmatrix=[1.242115] units=km
new line.line_40 bus1=bus_14.2 bus2=bus_32.2 linecode=LCode_40 length=1.0 units=km
new linecode.LCode_41 nphases=1 rmatrix=[0.796130] xmatrix=[1.242115] units=km
new line.line_41 bus1=bus_18.2 bus2=bus_33.2 linecode=LCode_41 length=1.0 units=km
new linecode.LCode_42 nphases=1 rmatrix=[0.553760] xmatrix=[1.382503] units=km
new line.line_42 bus1=bus_34.2 bus2=bus_35.2 linecode=LCode_42 length=1.0 units=km
new linecode.LCode_43 nphases=1 rmatrix=[0.528912] xmatrix=[1.266241] units=km
new line.line_43 bus1=bus_34.2 bus2=bus_36.2 linecode=LCode_43 length=1.0 units=km
new linecode.LCode_44 nphases=1 rmatrix=[0.685572] xmatrix=[1.650430] units=km
new line.line_44 bus1=bus_32.2 bus2=bus_36.2 linecode=LCode_44 length=1.0 units=km
new linecode.LCode_45 nphases=1 rmatrix=[0.470116] xmatrix=[1.349843] units=km
new line.line_45 bus1=bus_33.2 bus2=bus_35.2 linecode=LCode_45 length=1.0 units=km
new linecode.LCode_46 nphases=1 rmatrix=[0.667755] xmatrix=[1.242115] units=km
new line.line_46 bus1=bus_33.2 bus2=bus_36.2 linecode=LCode_46 length=1.0 units=km
new linecode.LCode_47 nphases=1 rmatrix=[0.497998] xmatrix=[1.382127] units=km
new line.line_47 bus1=bus_36.2 bus2=bus_38.2 linecode=LCode_47 length=1.0 units=km
new linecode.LCode_48 nphases=1 rmatrix=[0.874089] xmatrix=[1.357742] units=km
new line.line_48 bus1=bus_36.2 bus2=bus_39.2 linecode=LCode_48 length=1.0 units=km
new linecode.LCode_49 nphases=1 rmatrix=[0.788734] xmatrix=[1.242115] units=km
new line.line_49 bus1=bus_29.1 bus2=bus_37.1 linecode=LCode_49 length=1.0 units=km
new linecode.LCode_50 nphases=1 rmatrix=[1.028111] xmatrix=[1.284717] units=km
new line.line_50 bus1=bus_38.2 bus2=bus_39.2 linecode=LCode_50 length=1.0 units=km
new linecode.LCode_51 nphases=1 rmatrix=[0.688761] xmatrix=[1.395522] units=km
new line.line_51 bus1=bus_39.2 bus2=bus_40.2 linecode=LCode_51 length=1.0 units=km
new linecode.LCode_52 nphases=1 rmatrix=[0.715032] xmatrix=[1.243221] units=km
new line.line_52 bus1=bus_39.2 bus2=bus_41.2 linecode=LCode_52 length=1.0 units=km
new linecode.LCode_53 nphases=1 rmatrix=[0.810613] xmatrix=[1.472594] units=km
new line.line_53 bus1=bus_40.2 bus2=bus_41.2 linecode=LCode_53 length=1.0 units=km
new linecode.LCode_54 nphases=1 rmatrix=[0.839789] xmatrix=[1.460230] units=km
new line.line_54 bus1=bus_42.2 bus2=bus_43.2 linecode=LCode_54 length=1.0 units=km
new linecode.LCode_55 nphases=1 rmatrix=[1.030400] xmatrix=[1.242115] units=km
new line.line_55 bus1=bus_33.2 bus2=bus_42.2 linecode=LCode_55 length=1.0 units=km
new linecode.LCode_56 nphases=1 rmatrix=[0.226301] xmatrix=[1.251937] units=km
new line.line_56 bus1=bus_43.2 bus2=bus_44.2 linecode=LCode_56 length=1.0 units=km
new linecode.LCode_57 nphases=1 rmatrix=[1.001878] xmatrix=[1.242115] units=km
new line.line_57 bus1=bus_44.2 bus2=bus_45.2 linecode=LCode_57 length=1.0 units=km
new linecode.LCode_58 nphases=3 rmatrix=[0.245922 | 0.059160 0.245922 | 0.059160 0.059160 0.245922] xmatrix=[1.395674 | 1.024695 1.395674 | 0.940589 1.024695 1.395674] units=km
new line.line_58 bus1=bus_45.1.2.3 bus2=bus_46.1.2.3 linecode=LCode_58 length=1.0 units=km
new linecode.LCode_59 nphases=1 rmatrix=[1.033307] xmatrix=[1.242115] units=km
new line.line_59 bus1=bus_45.2 bus2=bus_47.2 linecode=LCode_59 length=1.0 units=km
new linecode.LCode_60 nphases=1 rmatrix=[0.679693] xmatrix=[1.285733] units=km
new line.line_60 bus1=bus_46.2 bus2=bus_48.2 linecode=LCode_60 length=1.0 units=km
new linecode.LCode_61 nphases=1 rmatrix=[0.322520] xmatrix=[1.242115] units=km
new line.line_61 bus1=bus_41.2 bus2=bus_48.2 linecode=LCode_61 length=1.0 units=km
new linecode.LCode_62 nphases=1 rmatrix=[0.714919] xmatrix=[1.459445] units=km
new line.line_62 bus1=bus_41.2 bus2=bus_48.2 linecode=LCode_62 length=1.0 units=km
new linecode.LCode_63 nphases=1 rmatrix=[0.666208] xmatrix=[1.281249] units=km
new line.line_63 bus1=bus_44.2 bus2=bus_48.2 linecode=LCode_63 length=1.0 units=km
new linecode.LCode_64 nphases=1 rmatrix=[0.266274] xmatrix=[1.614789] units=km
new line.line_64 bus1=bus_47.2 bus2=bus_48.2 linecode=LCode_64 length=1.0 units=km
new linecode.LCode_65 nphases=1 rmatrix=[0.685288] xmatrix=[1.356844] units=km
new line.line_65 bus1=bus_48.2 bus2=bus_49.2 linecode=LCode_65 length=1.0 units=km
new linecode.LCode_66 nphases=1 rmatrix=[0.287872] xmatrix=[1.269921] units=km
new line.line_66 bus1=bus_48.2 bus2=bus_50.2 linecode=LCode_66 length=1.0 units=km
new linecode.LCode_67 nphases=1 rmatrix=[1.078362] xmatrix=[1.261843] units=km
new line.line_67 bus1=bus_50.2 bus2=bus_51.2 linecode=LCode_67 length=1.0 units=km
new linecode.LCode_68 nphases=1 rmatrix=[0.642836] xmatrix=[1.242115] units=km
new line.line_68 bus1=bus_51.2 bus2=bus_52.2 linecode=LCode_68 length=1.0 units=km
new linecode.LCode_69 nphases=1 rmatrix=[1.336915] xmatrix=[1.242115] units=km
new line.line_69 bus1=bus_52.2 bus2=bus_53.2 linecode=LCode_69 length=1.0 units=km
new linecode.LCode_70 nphases=1 rmatrix=[0.290244] xmatrix=[1.278203] units=km
new line.line_70 bus1=bus_48.2 bus2=bus_53.2 linecode=LCode_70 length=1.0 units=km
new linecode.LCode_71 nphases=1 rmatrix=[0.836619] xmatrix=[1.261787] units=km
new line.line_71 bus1=bus_48.2 bus2=bus_53.2 linecode=LCode_71 length=1.0 units=km
new linecode.LCode_72 nphases=1 rmatrix=[0.307432] xmatrix=[1.350823] units=km
new line.line_72 bus1=bus_53.2 bus2=bus_54.2 linecode=LCode_72 length=1.0 units=km
new linecode.LCode_73 nphases=1 rmatrix=[0.293318] xmatrix=[1.242115] units=km
new line.line_73 bus1=bus_53.2 bus2=bus_55.2 linecode=LCode_73 length=1.0 units=km
new linecode.LCode_74 nphases=1 rmatrix=[0.338733] xmatrix=[1.480751] units=km
new line.line_74 bus1=bus_54.2 bus2=bus_55.2 linecode=LCode_74 length=1.0 units=km
new linecode.LCode_75 nphases=1 rmatrix=[0.846728] xmatrix=[1.493606] units=km
new line.line_75 bus1=bus_55.2 bus2=bus_56.2 linecode=LCode_75 length=1.0 units=km
new linecode.LCode_76 nphases=1 rmatrix=[0.676413] xmatrix=[1.242115] units=km
new line.line_76 bus1=bus_49.2 bus2=bus_56.2 linecode=LCode_76 length=1.0 units=km
new linecode.LCode_77 nphases=1 rmatrix=[0.664206] xmatrix=[1.289541] units=km
new line.line_77 bus1=bus_55.2 bus2=bus_57.2 linecode=LCode_77 length=1.0 units=km
new linecode.LCode_78 nphases=1 rmatrix=[0.965386] xmatrix=[1.242115] units=km
new line.line_78 bus1=bus_50.2 bus2=bus_57.2 linecode=LCode_78 length=1.0 units=km
new linecode.LCode_79 nphases=1 rmatrix=[0.266502] xmatrix=[1.242115] units=km
new line.line_79 bus1=bus_53.2 bus2=bus_58.2 linecode=LCode_79 length=1.0 units=km
new linecode.LCode_80 nphases=1 rmatrix=[0.940085] xmatrix=[1.314402] units=km
new line.line_80 bus1=bus_55.2 bus2=bus_58.2 linecode=LCode_80 length=1.0 units=km
new linecode.LCode_81 nphases=1 rmatrix=[0.133811] xmatrix=[1.242115] units=km
new line.line_81 bus1=bus_55.2 bus2=bus_58.2 linecode=LCode_81 length=1.0 units=km
new linecode.LCode_82 nphases=1 rmatrix=[0.985082] xmatrix=[1.386801] units=km
new line.line_82 bus1=bus_54.2 bus2=bus_58.2 linecode=LCode_82 length=1.0 units=km
new linecode.LCode_83 nphases=1 rmatrix=[1.258607] xmatrix=[1.454627] units=km
new line.line_83 bus1=bus_58.2 bus2=bus_59.2 linecode=LCode_83 length=1.0 units=km
new linecode.LCode_84 nphases=1 rmatrix=[1.062612] xmatrix=[1.301765] units=km
new line.line_84 bus1=bus_58.2 bus2=bus_60.2 linecode=LCode_84 length=1.0 units=km
new linecode.LCode_85 nphases=1 rmatrix=[1.088911] xmatrix=[1.242115] units=km
new line.line_85 bus1=bus_59.2 bus2=bus_60.2 linecode=LCode_85 length=1.0 units=km
new linecode.LCode_86 nphases=1 rmatrix=[0.684843] xmatrix=[1.492642] units=km
new line.line_86 bus1=bus_59.2 bus2=bus_61.2 linecode=LCode_86 length=1.0 units=km
new linecode.LCode_87 nphases=1 rmatrix=[0.586275] xmatrix=[1.308045] units=km
new line.line_87 bus1=bus_60.2 bus2=bus_61.2 linecode=LCode_87 length=1.0 units=km
new linecode.LCode_88 nphases=1 rmatrix=[0.127994] xmatrix=[1.265175] units=km
new line.line_88 bus1=bus_62.3 bus2=bus_63.3 linecode=LCode_88 length=1.0 units=km
new linecode.LCode_90 nphases=1 rmatrix=[0.367629] xmatrix=[1.315502] units=km
new line.line_90 bus1=bus_63.3 bus2=bus_64.3 linecode=LCode_90 length=1.0 units=km
new linecode.LCode_91 nphases=1 rmatrix=[0.266299] xmatrix=[1.242115] units=km
new line.line_91 bus1=bus_48.2 bus2=bus_65.2 linecode=LCode_91 length=1.0 units=km
new linecode.LCode_92 nphases=1 rmatrix=[0.273181] xmatrix=[1.303614] units=km
new line.line_92 bus1=bus_48.2 bus2=bus_65.2 linecode=LCode_92 length=1.0 units=km
new linecode.LCode_93 nphases=1 rmatrix=[0.922044] xmatrix=[1.242115] units=km
new line.line_93 bus1=bus_61.2 bus2=bus_65.2 linecode=LCode_93 length=1.0 units=km
new linecode.LCode_94 nphases=1 rmatrix=[0.552473] xmatrix=[1.242115] units=km
new line.line_94 bus1=bus_61.2 bus2=bus_66.2 linecode=LCode_94 length=1.0 units=km
new linecode.LCode_95 nphases=1 rmatrix=[0.896707] xmatrix=[1.242115] units=km
new line.line_95 bus1=bus_65.2 bus2=bus_66.2 linecode=LCode_95 length=1.0 units=km
new linecode.LCode_96 nphases=3 rmatrix=[0.951768 | 0.059160 0.951768 | 0.059160 0.059160 0.951768] xmatrix=[1.242115 | 1.024695 1.242115 | 0.940589 1.024695 1.242115] units=km
new line.line_96 bus1=bus_46.1.2.3 bus2=bus_68.1.2.3 linecode=LCode_96 length=1.0 units=km
new linecode.LCode_97 nphases=1 rmatrix=[0.604621] xmatrix=[1.242115] units=km
new line.line_97 bus1=bus_48.2 bus2=bus_68.2 linecode=LCode_97 length=1.0 units=km
new linecode.LCode_98 nphases=2 rmatrix=[0.441222 | 0.059160 0.441222] xmatrix=[1.285589 | 1.024695 1.285589] units=km
new line.line_98 bus1=bus_68.2.3 bus2=bus_69.2.3 linecode=LCode_98 length=1.0 units=km
new linecode.LCode_99 nphases=2 rmatrix=[0.861155 | 0.059160 0.861155] xmatrix=[1.337863 | 1.024695 1.337863] units=km
new line.line_99 bus1=bus_23.2.3 bus2=bus_69.2.3 linecode=LCode_99 length=1.0 units=km
new linecode.LCode_100 nphases=2 rmatrix=[0.921408 | 0.059160 0.921408] xmatrix=[1.242115 | 1.024695 1.242115] units=km
new line.line_100 bus1=bus_69.2.3 bus2=bus_70.2.3 linecode=LCode_100 length=1.0 units=km
new linecode.LCode_101 nphases=2 rmatrix=[0.939755 | 0.059160 0.939755] xmatrix=[1.401673 | 1.024695 1.401673] units=km
new line.line_101 bus1=bus_23.2.3 bus2=bus_71.2.3 linecode=LCode_101 length=1.0 units=km
new linecode.LCode_102 nphases=2 rmatrix=[0.235630 | 0.059160 0.235630] xmatrix=[1.244734 | 1.024695 1.244734] units=km
new line.line_102 bus1=bus_70.2.3 bus2=bus_71.2.3 linecode=LCode_102 length=1.0 units=km
new linecode.LCode_103 nphases=1 rmatrix=[0.270868] xmatrix=[1.242115] units=km
new line.line_103 bus1=bus_70.3 bus2=bus_72.3 linecode=LCode_103 length=1.0 units=km
new linecode.LCode_104 nphases=2 rmatrix=[0.524217 | 0.059160 0.524217] xmatrix=[1.324547 | 1.024695 1.324547] units=km
new line.line_104 bus1=bus_69.2.3 bus2=bus_73.2.3 linecode=LCode_104 length=1.0 units=km
new linecode.LCode_105 nphases=1 rmatrix=[0.190034] xmatrix=[1.246104] units=km
new line.line_105 bus1=bus_69.2 bus2=bus_74.2 linecode=LCode_105 length=1.0 units=km
new linecode.LCode_106 nphases=2 rmatrix=[0.310658 | 0.059160 0.310658] xmatrix=[1.550287 | 1.024695 1.550287] units=km
new line.line_106 bus1=bus_68.1.2 bus2=bus_74.1.2 linecode=LCode_106 length=1.0 units=km
new linecode.LCode_107 nphases=1 rmatrix=[0.284276] xmatrix=[1.242578] units=km
new line.line_107 bus1=bus_73.2 bus2=bus_74.2 linecode=LCode_107 length=1.0 units=km
new linecode.LCode_108 nphases=1 rmatrix=[1.344923] xmatrix=[1.242115] units=km
new line.line_108 bus1=bus_75.1 bus2=bus_76.1 linecode=LCode_108 length=1.0 units=km
new linecode.LCode_109 nphases=1 rmatrix=[0.863410] xmatrix=[1.427831] units=km
new line.line_109 bus1=bus_68.1 bus2=bus_76.1 linecode=LCode_109 length=1.0 units=km
new linecode.LCode_110 nphases=1 rmatrix=[0.291166] xmatrix=[1.242115] units=km
new line.line_110 bus1=bus_74.1 bus2=bus_76.1 linecode=LCode_110 length=1.0 units=km
new linecode.LCode_111 nphases=1 rmatrix=[0.366865] xmatrix=[1.242115] units=km
new line.line_111 bus1=bus_76.1 bus2=bus_77.1 linecode=LCode_111 length=1.0 units=km
new linecode.LCode_112 nphases=1 rmatrix=[0.684602] xmatrix=[1.242115] units=km
new line.line_112 bus1=bus_77.1 bus2=bus_78.1 linecode=LCode_112 length=1.0 units=km
new linecode.LCode_113 nphases=1 rmatrix=[0.289195] xmatrix=[1.242115] units=km
new line.line_113 bus1=bus_76.1 bus2=bus_79.1 linecode=LCode_113 length=1.0 units=km
new linecode.LCode_114 nphases=1 rmatrix=[0.959903] xmatrix=[1.242115] units=km
new line.line_114 bus1=bus_76.1 bus2=bus_79.1 linecode=LCode_114 length=1.0 units=km
new linecode.LCode_115 nphases=1 rmatrix=[0.781726] xmatrix=[1.418571] units=km
new line.line_115 bus1=bus_78.1 bus2=bus_79.1 linecode=LCode_115 length=1.0 units=km
new linecode.LCode_116 nphases=1 rmatrix=[1.027966] xmatrix=[1.242115] units=km
new line.line_116 bus1=bus_76.1 bus2=bus_81.1 linecode=LCode_116 length=1.0 units=km
new linecode.LCode_117 nphases=1 rmatrix=[0.748212] xmatrix=[1.348866] units=km
new line.line_117 bus1=bus_81.1 bus2=bus_82.1 linecode=LCode_117 length=1.0 units=km
new linecode.LCode_118 nphases=1 rmatrix=[0.945642] xmatrix=[1.242115] units=km
new line.line_118 bus1=bus_82.1 bus2=bus_83.1 linecode=LCode_118 length=1.0 units=km
new linecode.LCode_119 nphases=1 rmatrix=[0.763044] xmatrix=[1.242115] units=km
new line.line_119 bus1=bus_82.1 bus2=bus_84.1 linecode=LCode_119 length=1.0 units=km
new linecode.LCode_120 nphases=1 rmatrix=[1.124989] xmatrix=[1.380751] units=km
new line.line_120 bus1=bus_83.1 bus2=bus_84.1 linecode=LCode_120 length=1.0 units=km
new linecode.LCode_121 nphases=1 rmatrix=[0.245430] xmatrix=[1.358681] units=km
new line.line_121 bus1=bus_84.1 bus2=bus_85.1 linecode=LCode_121 length=1.0 units=km
new linecode.LCode_122 nphases=1 rmatrix=[1.495689] xmatrix=[1.242115] units=km
new line.line_122 bus1=bus_84.1 bus2=bus_87.1 linecode=LCode_122 length=1.0 units=km
new linecode.LCode_123 nphases=1 rmatrix=[0.681630] xmatrix=[1.242115] units=km
new line.line_123 bus1=bus_84.1 bus2=bus_88.1 linecode=LCode_123 length=1.0 units=km
new linecode.LCode_124 nphases=1 rmatrix=[0.501556] xmatrix=[1.242115] units=km
new line.line_124 bus1=bus_87.1 bus2=bus_88.1 linecode=LCode_124 length=1.0 units=km
new linecode.LCode_125 nphases=1 rmatrix=[0.720014] xmatrix=[1.242115] units=km
new line.line_125 bus1=bus_88.1 bus2=bus_89.1 linecode=LCode_125 length=1.0 units=km
new linecode.LCode_126 nphases=1 rmatrix=[0.699416] xmatrix=[1.319599] units=km
new line.line_126 bus1=bus_88.1 bus2=bus_89.1 linecode=LCode_126 length=1.0 units=km
new linecode.LCode_127 nphases=1 rmatrix=[1.062976] xmatrix=[1.246153] units=km
new line.line_127 bus1=bus_89.1 bus2=bus_90.1 linecode=LCode_127 length=1.0 units=km
new linecode.LCode_128 nphases=1 rmatrix=[0.641785] xmatrix=[1.459479] units=km
new line.line_128 bus1=bus_88.1 bus2=bus_91.1 linecode=LCode_128 length=1.0 units=km
new linecode.LCode_129 nphases=1 rmatrix=[0.865383] xmatrix=[1.242115] units=km
new line.line_129 bus1=bus_88.1 bus2=bus_91.1 linecode=LCode_129 length=1.0 units=km
new linecode.LCode_130 nphases=1 rmatrix=[0.641731] xmatrix=[1.293359] units=km
new line.line_130 bus1=bus_90.1 bus2=bus_91.1 linecode=LCode_130 length=1.0 units=km
new linecode.LCode_131 nphases=1 rmatrix=[0.345592] xmatrix=[1.479786] units=km
new line.line_131 bus1=bus_91.1 bus2=bus_92.1 linecode=LCode_131 length=1.0 units=km
new linecode.LCode_132 nphases=1 rmatrix=[0.587989] xmatrix=[1.269228] units=km
new line.line_132 bus1=bus_91.1 bus2=bus_93.1 linecode=LCode_132 length=1.0 units=km
new linecode.LCode_133 nphases=1 rmatrix=[0.908653] xmatrix=[1.242115] units=km
new line.line_133 bus1=bus_92.1 bus2=bus_93.1 linecode=LCode_133 length=1.0 units=km
new linecode.LCode_134 nphases=1 rmatrix=[0.835053] xmatrix=[1.320535] units=km
new line.line_134 bus1=bus_93.1 bus2=bus_94.1 linecode=LCode_134 length=1.0 units=km
new linecode.LCode_135 nphases=1 rmatrix=[0.802858] xmatrix=[1.461543] units=km
new line.line_135 bus1=bus_79.1 bus2=bus_95.1 linecode=LCode_135 length=1.0 units=km
new linecode.LCode_136 nphases=1 rmatrix=[1.124784] xmatrix=[1.516284] units=km
new line.line_136 bus1=bus_81.1 bus2=bus_95.1 linecode=LCode_136 length=1.0 units=km
new linecode.LCode_137 nphases=1 rmatrix=[0.966527] xmatrix=[1.382913] units=km
new line.line_137 bus1=bus_93.1 bus2=bus_95.1 linecode=LCode_137 length=1.0 units=km
new linecode.LCode_138 nphases=1 rmatrix=[1.077620] xmatrix=[1.242115] units=km
new line.line_138 bus1=bus_79.1 bus2=bus_96.1 linecode=LCode_138 length=1.0 units=km
new linecode.LCode_139 nphases=1 rmatrix=[0.836052] xmatrix=[1.242115] units=km
new line.line_139 bus1=bus_79.1 bus2=bus_97.1 linecode=LCode_139 length=1.0 units=km
new linecode.LCode_140 nphases=1 rmatrix=[0.242824] xmatrix=[1.242115] units=km
new line.line_140 bus1=bus_79.1 bus2=bus_98.1 linecode=LCode_140 length=1.0 units=km
new linecode.LCode_141 nphases=1 rmatrix=[0.746935] xmatrix=[1.242115] units=km
new line.line_141 bus1=bus_91.1 bus2=bus_99.1 linecode=LCode_141 length=1.0 units=km
new linecode.LCode_142 nphases=1 rmatrix=[0.601575] xmatrix=[1.536784] units=km
new line.line_142 bus1=bus_93.1 bus2=bus_99.1 linecode=LCode_142 length=1.0 units=km
new linecode.LCode_143 nphases=1 rmatrix=[0.610502] xmatrix=[1.308883] units=km
new line.line_143 bus1=bus_94.1 bus2=bus_95.1 linecode=LCode_143 length=1.0 units=km
new linecode.LCode_144 nphases=1 rmatrix=[0.224030] xmatrix=[1.339865] units=km
new line.line_144 bus1=bus_95.1 bus2=bus_96.1 linecode=LCode_144 length=1.0 units=km
new linecode.LCode_145 nphases=1 rmatrix=[0.984421] xmatrix=[1.242115] units=km
new line.line_145 bus1=bus_97.1 bus2=bus_99.1 linecode=LCode_145 length=1.0 units=km
new linecode.LCode_146 nphases=1 rmatrix=[0.253972] xmatrix=[1.388132] units=km
new line.line_146 bus1=bus_98.1 bus2=bus_99.1 linecode=LCode_146 length=1.0 units=km
new linecode.LCode_147 nphases=1 rmatrix=[1.160777] xmatrix=[1.276881] units=km
new line.line_147 bus1=bus_99.1 bus2=bus_100.1 linecode=LCode_147 length=1.0 units=km
new linecode.LCode_148 nphases=1 rmatrix=[0.440790] xmatrix=[1.503463] units=km
new line.line_148 bus1=bus_91.1 bus2=bus_101.1 linecode=LCode_148 length=1.0 units=km
new linecode.LCode_149 nphases=1 rmatrix=[0.541732] xmatrix=[1.372050] units=km
new line.line_149 bus1=bus_100.1 bus2=bus_101.1 linecode=LCode_149 length=1.0 units=km
new linecode.LCode_150 nphases=1 rmatrix=[0.283985] xmatrix=[1.248046] units=km
new line.line_150 bus1=bus_99.1 bus2=bus_102.1 linecode=LCode_150 length=1.0 units=km
new linecode.LCode_151 nphases=1 rmatrix=[1.220788] xmatrix=[1.338883] units=km
new line.line_151 bus1=bus_99.1 bus2=bus_103.1 linecode=LCode_151 length=1.0 units=km
new linecode.LCode_152 nphases=1 rmatrix=[0.222532] xmatrix=[1.302285] units=km
new line.line_152 bus1=bus_102.1 bus2=bus_103.1 linecode=LCode_152 length=1.0 units=km
new linecode.LCode_153 nphases=1 rmatrix=[0.798424] xmatrix=[1.416985] units=km
new line.line_153 bus1=bus_102.1 bus2=bus_104.1 linecode=LCode_153 length=1.0 units=km
new linecode.LCode_154 nphases=1 rmatrix=[1.007870] xmatrix=[1.242115] units=km
new line.line_154 bus1=bus_99.1 bus2=bus_105.1 linecode=LCode_154 length=1.0 units=km
new linecode.LCode_155 nphases=1 rmatrix=[0.832311] xmatrix=[1.430848] units=km
new line.line_155 bus1=bus_103.1 bus2=bus_104.1 linecode=LCode_155 length=1.0 units=km
new linecode.LCode_156 nphases=1 rmatrix=[0.820365] xmatrix=[1.291104] units=km
new line.line_156 bus1=bus_104.1 bus2=bus_105.1 linecode=LCode_156 length=1.0 units=km
new linecode.LCode_157 nphases=1 rmatrix=[0.569151] xmatrix=[1.340016] units=km
new line.line_157 bus1=bus_104.1 bus2=bus_106.1 linecode=LCode_157 length=1.0 units=km
new linecode.LCode_158 nphases=1 rmatrix=[0.723117] xmatrix=[1.357242] units=km
new line.line_158 bus1=bus_104.1 bus2=bus_107.1 linecode=LCode_158 length=1.0 units=km
new linecode.LCode_159 nphases=1 rmatrix=[0.727757] xmatrix=[1.242115] units=km
new line.line_159 bus1=bus_105.1 bus2=bus_106.1 linecode=LCode_159 length=1.0 units=km
new linecode.LCode_160 nphases=1 rmatrix=[0.840296] xmatrix=[1.242115] units=km
new line.line_160 bus1=bus_107.1 bus2=bus_108.1 linecode=LCode_160 length=1.0 units=km
new linecode.LCode_161 nphases=1 rmatrix=[0.705959] xmatrix=[1.474207] units=km
new line.line_161 bus1=bus_102.1 bus2=bus_109.1 linecode=LCode_161 length=1.0 units=km
new linecode.LCode_162 nphases=1 rmatrix=[0.318609] xmatrix=[1.387953] units=km
new line.line_162 bus1=bus_108.1 bus2=bus_109.1 linecode=LCode_162 length=1.0 units=km
new linecode.LCode_163 nphases=1 rmatrix=[0.740519] xmatrix=[1.242115] units=km
new line.line_163 bus1=bus_109.1 bus2=bus_110.1 linecode=LCode_163 length=1.0 units=km
new linecode.LCode_164 nphases=1 rmatrix=[0.575309] xmatrix=[1.242115] units=km
new line.line_164 bus1=bus_109.1 bus2=bus_111.1 linecode=LCode_164 length=1.0 units=km
new linecode.LCode_165 nphases=1 rmatrix=[0.964802] xmatrix=[1.342251] units=km
new line.line_165 bus1=bus_16.1 bus2=bus_112.1 linecode=LCode_165 length=1.0 units=km
new linecode.LCode_166 nphases=1 rmatrix=[0.343262] xmatrix=[1.242115] units=km
new line.line_166 bus1=bus_31.1 bus2=bus_112.1 linecode=LCode_166 length=1.0 units=km
new linecode.LCode_167 nphases=1 rmatrix=[0.948349] xmatrix=[1.248889] units=km
new line.line_167 bus1=bus_31.1 bus2=bus_113.1 linecode=LCode_167 length=1.0 units=km
new linecode.LCode_168 nphases=2 rmatrix=[0.633236 | 0.059160 0.633236] xmatrix=[1.242115 | 1.024695 1.242115] units=km
new line.line_168 bus1=bus_26.2.3 bus2=bus_114.2.3 linecode=LCode_168 length=1.0 units=km
new linecode.LCode_170 nphases=1 rmatrix=[0.472230] xmatrix=[1.354842] units=km
new line.line_170 bus1=bus_11.1 bus2=bus_116.1 linecode=LCode_170 length=1.0 units=km
new linecode.LCode_171 nphases=2 rmatrix=[1.333030 | 0.059160 1.333030] xmatrix=[1.512208 | 1.024695 1.512208] units=km
new line.line_171 bus1=bus_74.1.2 bus2=bus_117.1.2 linecode=LCode_171 length=1.0 units=km
new linecode.LCode_172 nphases=1 rmatrix=[0.890761] xmatrix=[1.242115] units=km
new line.line_172 bus1=bus_75.1 bus2=bus_117.1 linecode=LCode_172 length=1.0 units=km

!---------------- LOADS ----------------

new load.load_0_A bus1=bus_0.1 Phases=1 kv=157.6864406779661 kw=1396.2803913857852 kvar=457.9799683745375 vminpu=0.85
new load.load_1_A bus1=bus_1.1 Phases=1 kv=157.6864406779661 kw=1564.771060874216 kvar=513.2449079667429 vminpu=0.85
new load.load_2_A bus1=bus_2.1 Phases=1 kv=157.6864406779661 kw=1635.4936672637143 kvar=536.4419228624984 vminpu=0.85
new load.load_3_A bus1=bus_3.1 Phases=1 kv=157.6864406779661 kw=1514.2439243358574 kvar=496.6720071821612 vminpu=0.85
new load.load_4_A bus1=bus_4.1 Phases=1 kv=157.6864406779661 kw=1963.0863729371265 kvar=643.8923303233776 vminpu=0.85
new load.load_5_A bus1=bus_5.1 Phases=1 kv=157.6864406779661 kw=2097.9504433744164 kvar=688.1277454268086 vminpu=0.85
new load.load_6_A bus1=bus_6.1 Phases=1 kv=157.6864406779661 kw=2106.602547055148 kvar=690.9656354340887 vminpu=0.85
new load.load_7_A bus1=bus_7.1 Phases=1 kv=157.6864406779661 kw=2243.054156044095 kvar=735.7217631824633 vminpu=0.85
new load.load_8_A bus1=bus_8.1 Phases=1 kv=157.6864406779661 kw=1762.068852510546 kvar=577.9585836234592 vminpu=0.85
new load.load_9_A bus1=bus_9.1 Phases=1 kv=157.6864406779661 kw=1346.0440901713068 kvar=441.50246157618864 vminpu=0.85
new load.load_10_A bus1=bus_10.1 Phases=1 kv=157.6864406779661 kw=1964.533601171576 kvar=644.367021184277 vminpu=0.85
new load.load_11_A bus1=bus_11.1 Phases=1 kv=157.6864406779661 kw=2001.5207952732037 kvar=656.4988208496109 vminpu=0.85
new load.load_12_B bus1=bus_12.2 Phases=1 kv=157.6864406779661 kw=2362.9349743910198 kvar=775.0426716002545 vminpu=0.85
new load.load_13_B bus1=bus_13.2 Phases=1 kv=157.6864406779661 kw=2389.019490979748 kvar=783.5983930413573 vminpu=0.85
new load.load_14_B bus1=bus_14.2 Phases=1 kv=157.6864406779661 kw=2763.16760252672 kvar=906.3189736287643 vminpu=0.85
new load.load_15_A bus1=bus_15.1 Phases=1 kv=157.6864406779661 kw=2480.7719163199004 kvar=813.6931885529274 vminpu=0.85
new load.load_16_A bus1=bus_16.1 Phases=1 kv=157.6864406779661 kw=1558.6436787206833 kvar=511.23512662038416 vminpu=0.85
new load.load_17_A bus1=bus_17.1 Phases=1 kv=157.6864406779661 kw=1875.477515888094 kvar=615.1566252112949 vminpu=0.85
new load.load_18_B bus1=bus_18.2 Phases=1 kv=157.6864406779661 kw=1977.6255806049423 kvar=648.6611904384212 vminpu=0.85
new load.load_19_B bus1=bus_19.2 Phases=1 kv=157.6864406779661 kw=987.354359636286 kvar=323.8522299607018 vminpu=0.85
new load.load_19_C bus1=bus_19.3 Phases=1 kv=157.6864406779661 kw=1059.9241100243266 kvar=347.65510808797916 vminpu=0.85
new load.load_20_B bus1=bus_20.2 Phases=1 kv=157.6864406779661 kw=1359.2724745023716 kvar=445.84137163677786 vminpu=0.85
new load.load_20_C bus1=bus_20.3 Phases=1 kv=157.6864406779661 kw=218.42429297312188 kvar=71.64316809518398 vminpu=0.85
new load.load_21_B bus1=bus_21.2 Phases=1 kv=157.6864406779661 kw=157.63660720069248 kvar=51.704807161827134 vminpu=0.85
new load.load_21_C bus1=bus_21.3 Phases=1 kv=157.6864406779661 kw=1703.526594026251 kvar=558.7567228406103 vminpu=0.85
new load.load_22_B bus1=bus_22.2 Phases=1 kv=157.6864406779661 kw=397.15461976418914 kvar=130.26671528265405 vminpu=0.85
new load.load_22_C bus1=bus_22.3 Phases=1 kv=157.6864406779661 kw=2092.3724082671056 kvar=686.2981499116106 vminpu=0.85
new load.load_23_B bus1=bus_23.2 Phases=1 kv=157.6864406779661 kw=768.933841721206 kvar=252.2103000845556 vminpu=0.85
new load.load_23_C bus1=bus_23.3 Phases=1 kv=157.6864406779661 kw=1453.8711172041226 kvar=476.86972644295224 vminpu=0.85
new load.load_24_B bus1=bus_24.2 Phases=1 kv=157.6864406779661 kw=101.01503402802103 kvar=33.1329311611909 vminpu=0.85
new load.load_24_C bus1=bus_24.3 Phases=1 kv=157.6864406779661 kw=1345.4512925090949 kvar=441.30802394298314 vminpu=0.85
new load.load_25_B bus1=bus_25.2 Phases=1 kv=157.6864406779661 kw=1717.3074577626628 kvar=563.2768461461534 vminpu=0.85
new load.load_25_C bus1=bus_25.3 Phases=1 kv=157.6864406779661 kw=240.62360704777043 kvar=78.92454311166871 vminpu=0.85
new load.load_26_B bus1=bus_26.2 Phases=1 kv=157.6864406779661 kw=11.182390784195633 kvar=3.6678241772161675 vminpu=0.85
new load.load_26_C bus1=bus_26.3 Phases=1 kv=157.6864406779661 kw=1792.9030810173645 kvar=588.0722105736955 vminpu=0.85
new load.load_27_B bus1=bus_27.2 Phases=1 kv=157.6864406779661 kw=1085.4839339612306 kvar=356.03873033928363 vminpu=0.85
new load.load_27_C bus1=bus_27.3 Phases=1 kv=157.6864406779661 kw=655.1710823123292 kvar=214.89611499844398 vminpu=0.85
new load.load_28_A bus1=bus_28.1 Phases=1 kv=157.6864406779661 kw=3174.673688635859 kvar=1041.2929698725618 vminpu=0.85
new load.load_29_A bus1=bus_29.1 Phases=1 kv=157.6864406779661 kw=1856.5119054880809 kvar=608.9359050000905 vminpu=0.85
new load.load_30_A bus1=bus_30.1 Phases=1 kv=157.6864406779661 kw=2295.073436146014 kvar=752.7840870558927 vminpu=0.85
new load.load_31_A bus1=bus_31.1 Phases=1 kv=157.6864406779661 kw=2751.880470581114 kvar=902.6167943506055 vminpu=0.85
new load.load_32_B bus1=bus_32.2 Phases=1 kv=157.6864406779661 kw=2024.148405294788 kvar=663.9206769366905 vminpu=0.85
new load.load_33_B bus1=bus_33.2 Phases=1 kv=157.6864406779661 kw=2064.524550851868 kvar=677.1640526794126 vminpu=0.85
new load.load_34_B bus1=bus_34.2 Phases=1 kv=157.6864406779661 kw=1453.6747679007035 kvar=476.80532387143074 vminpu=0.85
new load.load_35_B bus1=bus_35.2 Phases=1 kv=157.6864406779661 kw=1845.981104708442 kvar=605.481802344369 vminpu=0.85
new load.load_36_B bus1=bus_36.2 Phases=1 kv=157.6864406779661 kw=1812.900414272899 kvar=594.631335881511 vminpu=0.85
new load.load_37_A bus1=bus_37.1 Phases=1 kv=157.6864406779661 kw=1852.0669584762384 kvar=607.4779623802062 vminpu=0.85
new load.load_38_B bus1=bus_38.2 Phases=1 kv=157.6864406779661 kw=2449.0831665835176 kvar=803.2992786393938 vminpu=0.85
new load.load_39_B bus1=bus_39.2 Phases=1 kv=157.6864406779661 kw=1626.1803504823952 kvar=533.3871549582257 vminpu=0.85
new load.load_40_B bus1=bus_40.2 Phases=1 kv=157.6864406779661 kw=1492.6698019246653 kvar=489.59569503129023 vminpu=0.85
new load.load_41_B bus1=bus_41.2 Phases=1 kv=157.6864406779661 kw=2802.3241304979106 kvar=919.1623148033148 vminpu=0.85
new load.load_42_B bus1=bus_42.2 Phases=1 kv=157.6864406779661 kw=2332.8328631038494 kvar=765.1691790980626 vminpu=0.85
new load.load_43_B bus1=bus_43.2 Phases=1 kv=157.6864406779661 kw=2412.4520881457747 kvar=791.2842849118141 vminpu=0.85
new load.load_44_B bus1=bus_44.2 Phases=1 kv=157.6864406779661 kw=2339.9449500802534 kvar=767.5019436263232 vminpu=0.85
new load.load_45_A bus1=bus_45.1 Phases=1 kv=157.6864406779661 kw=298.9609500404879 kvar=98.05919161328003 vminpu=0.85
new load.load_45_B bus1=bus_45.2 Phases=1 kv=157.6864406779661 kw=784.0579904092472 kvar=257.17102085423306 vminpu=0.85
new load.load_45_C bus1=bus_45.3 Phases=1 kv=157.6864406779661 kw=1183.6069767679217 kvar=388.22308837987833 vminpu=0.85
new load.load_46_A bus1=bus_46.1 Phases=1 kv=157.6864406779661 kw=189.3997207943856 kvar=62.123108420558474 vminpu=0.85
new load.load_46_B bus1=bus_46.2 Phases=1 kv=157.6864406779661 kw=1631.1863008898956 kvar=535.0291066918858 vminpu=0.85
new load.load_46_C bus1=bus_46.3 Phases=1 kv=157.6864406779661 kw=179.94491250376282 kvar=59.02193130123421 vminpu=0.85
new load.load_47_B bus1=bus_47.2 Phases=1 kv=157.6864406779661 kw=2691.697430033053 kvar=882.8767570508414 vminpu=0.85
new load.load_48_B bus1=bus_48.2 Phases=1 kv=157.6864406779661 kw=1952.9698736424764 kvar=640.5741185547323 vminpu=0.85
new load.load_49_B bus1=bus_49.2 Phases=1 kv=157.6864406779661 kw=2334.215277680132 kvar=765.6226110790834 vminpu=0.85
new load.load_50_B bus1=bus_50.2 Phases=1 kv=157.6864406779661 kw=2069.600167355212 kvar=678.8288548925095 vminpu=0.85
new load.load_51_B bus1=bus_51.2 Phases=1 kv=157.6864406779661 kw=1832.9750370172424 kvar=601.2158121416555 vminpu=0.85
new load.load_52_B bus1=bus_52.2 Phases=1 kv=157.6864406779661 kw=1723.068696748658 kvar=565.1665325335599 vminpu=0.85
new load.load_53_B bus1=bus_53.2 Phases=1 kv=157.6864406779661 kw=1974.848989299761 kvar=647.7504684903216 vminpu=0.85
new load.load_54_B bus1=bus_54.2 Phases=1 kv=157.6864406779661 kw=1485.1494086300672 kvar=487.1290060306621 vminpu=0.85
new load.load_55_B bus1=bus_55.2 Phases=1 kv=157.6864406779661 kw=1431.2591919215 kvar=469.453014950252 vminpu=0.85
new load.load_56_B bus1=bus_56.2 Phases=1 kv=157.6864406779661 kw=1619.5881350222294 kvar=531.2249082872912 vminpu=0.85
new load.load_57_B bus1=bus_57.2 Phases=1 kv=157.6864406779661 kw=2275.364035619367 kvar=746.3194036831524 vminpu=0.85
new load.load_58_B bus1=bus_58.2 Phases=1 kv=157.6864406779661 kw=1856.946162256335 kvar=609.0783412200778 vminpu=0.85
new load.load_59_B bus1=bus_59.2 Phases=1 kv=157.6864406779661 kw=2260.090380604338 kvar=741.3096448382229 vminpu=0.85
new load.load_60_B bus1=bus_60.2 Phases=1 kv=157.6864406779661 kw=2129.9650717170102 kvar=698.6285435231794 vminpu=0.85
new load.load_61_B bus1=bus_61.2 Phases=1 kv=157.6864406779661 kw=2448.149430903845 kvar=802.9930133364611 vminpu=0.85
new load.load_62_C bus1=bus_62.3 Phases=1 kv=157.6864406779661 kw=2751.131043834898 kvar=902.3709823778465 vminpu=0.85
new load.load_63_C bus1=bus_63.3 Phases=1 kv=157.6864406779661 kw=1860.7836095524165 kvar=610.3370239331927 vminpu=0.85
new load.load_64_B bus1=bus_64.2 Phases=1 kv=157.6864406779661 kw=593.4112890202746 kvar=194.63890279865007 vminpu=0.85
new load.load_64_C bus1=bus_64.3 Phases=1 kv=157.6864406779661 kw=1197.2213989202207 kvar=392.6886188458324 vminpu=0.85
new load.load_65_B bus1=bus_65.2 Phases=1 kv=157.6864406779661 kw=1596.1679998814393 kvar=523.5431039611121 vminpu=0.85
new load.load_66_B bus1=bus_66.2 Phases=1 kv=157.6864406779661 kw=2150.91717576752 kvar=705.5008336517466 vminpu=0.85
new load.load_67_B bus1=bus_67.2 Phases=1 kv=157.6864406779661 kw=1523.671780487075 kvar=499.7643439997606 vminpu=0.85
new load.load_67_C bus1=bus_67.3 Phases=1 kv=157.6864406779661 kw=991.7967809717084 kvar=325.30934415872036 vminpu=0.85
new load.load_69_B bus1=bus_69.2 Phases=1 kv=157.6864406779661 kw=1829.758540319101 kvar=600.1608012246652 vminpu=0.85
new load.load_69_C bus1=bus_69.3 Phases=1 kv=157.6864406779661 kw=341.2530356018701 kvar=111.9309956774134 vminpu=0.85
new load.load_70_B bus1=bus_70.2 Phases=1 kv=157.6864406779661 kw=1445.982462025 kvar=474.2822475442 vminpu=0.85
new load.load_70_C bus1=bus_70.3 Phases=1 kv=157.6864406779661 kw=140.5637141630976 kvar=46.10489824549601 vminpu=0.85
new load.load_71_B bus1=bus_71.2 Phases=1 kv=157.6864406779661 kw=966.1552286752252 kvar=316.8989150054739 vminpu=0.85
new load.load_71_C bus1=bus_71.3 Phases=1 kv=157.6864406779661 kw=804.6355109292775 kvar=263.920447584803 vminpu=0.85
new load.load_72_C bus1=bus_72.3 Phases=1 kv=157.6864406779661 kw=2528.3894834596963 kvar=829.3117505747804 vminpu=0.85
new load.load_73_B bus1=bus_73.2 Phases=1 kv=157.6864406779661 kw=311.3402602255758 kvar=102.11960535398886 vminpu=0.85
new load.load_73_C bus1=bus_73.3 Phases=1 kv=157.6864406779661 kw=1656.570026667279 kvar=543.3549687468676 vminpu=0.85
new load.load_74_A bus1=bus_74.1 Phases=1 kv=157.6864406779661 kw=542.6995777032654 kvar=178.00546148667107 vminpu=0.85
new load.load_74_B bus1=bus_74.2 Phases=1 kv=157.6864406779661 kw=1578.4585180029312 kvar=517.7343939049615 vminpu=0.85
new load.load_75_A bus1=bus_75.1 Phases=1 kv=157.6864406779661 kw=1856.9762078736649 kvar=609.0881961825621 vminpu=0.85
new load.load_76_A bus1=bus_76.1 Phases=1 kv=157.6864406779661 kw=1236.1552254612536 kvar=405.4589139512912 vminpu=0.85
new load.load_77_A bus1=bus_77.1 Phases=1 kv=157.6864406779661 kw=1694.387974769155 kvar=555.7592557242829 vminpu=0.85
new load.load_78_A bus1=bus_78.1 Phases=1 kv=157.6864406779661 kw=2118.0523934104717 kvar=694.7211850386348 vminpu=0.85
new load.load_79_A bus1=bus_79.1 Phases=1 kv=157.6864406779661 kw=2003.8259085235024 kvar=657.2548979957088 vminpu=0.85
new load.load_80_B bus1=bus_80.2 Phases=1 kv=157.6864406779661 kw=1070.8573921490358 kvar=351.2412246248838 vminpu=0.85
new load.load_80_C bus1=bus_80.3 Phases=1 kv=157.6864406779661 kw=1044.6557328772806 kvar=342.64708038374806 vminpu=0.85
new load.load_81_A bus1=bus_81.1 Phases=1 kv=157.6864406779661 kw=1965.6622694426176 kvar=644.7372243771786 vminpu=0.85
new load.load_82_A bus1=bus_82.1 Phases=1 kv=157.6864406779661 kw=1427.956661907011 kvar=468.36978510549966 vminpu=0.85
new load.load_83_A bus1=bus_83.1 Phases=1 kv=157.6864406779661 kw=3017.484359645299 kvar=989.7348699636581 vminpu=0.85
new load.load_84_A bus1=bus_84.1 Phases=1 kv=157.6864406779661 kw=1539.1250538774566 kvar=504.8330176718058 vminpu=0.85
new load.load_85_A bus1=bus_85.1 Phases=1 kv=157.6864406779661 kw=2071.48113740664 kvar=679.4458130693779 vminpu=0.85
new load.load_86_A bus1=bus_86.1 Phases=1 kv=157.6864406779661 kw=1965.4192117682344 kvar=644.657501459981 vminpu=0.85
new load.load_87_A bus1=bus_87.1 Phases=1 kv=157.6864406779661 kw=1223.000161765151 kvar=401.1440530589695 vminpu=0.85
new load.load_88_A bus1=bus_88.1 Phases=1 kv=157.6864406779661 kw=1350.9406107415032 kvar=443.10852032321304 vminpu=0.85
new load.load_89_A bus1=bus_89.1 Phases=1 kv=157.6864406779661 kw=1469.5603359011586 kvar=482.01579017558004 vminpu=0.85
new load.load_90_A bus1=bus_90.1 Phases=1 kv=157.6864406779661 kw=1891.2011138868197 kvar=620.3139653548769 vminpu=0.85
new load.load_91_A bus1=bus_91.1 Phases=1 kv=157.6864406779661 kw=2241.943118152566 kvar=735.3573427540417 vminpu=0.85
new load.load_92_A bus1=bus_92.1 Phases=1 kv=157.6864406779661 kw=2340.7644478001125 kvar=767.770738878437 vminpu=0.85
new load.load_93_A bus1=bus_93.1 Phases=1 kv=157.6864406779661 kw=1736.4021951338127 kvar=569.5399200038906 vminpu=0.85
new load.load_94_A bus1=bus_94.1 Phases=1 kv=157.6864406779661 kw=1802.2177948493163 kvar=591.1274367105758 vminpu=0.85
new load.load_95_A bus1=bus_95.1 Phases=1 kv=157.6864406779661 kw=2419.959660408632 kvar=793.7467686140313 vminpu=0.85
new load.load_96_A bus1=bus_96.1 Phases=1 kv=157.6864406779661 kw=2447.6564253312067 kvar=802.8313075086359 vminpu=0.85
new load.load_97_A bus1=bus_97.1 Phases=1 kv=157.6864406779661 kw=1988.1506021341304 kvar=652.1133974999948 vminpu=0.85
new load.load_98_A bus1=bus_98.1 Phases=1 kv=157.6864406779661 kw=1924.3895745856216 kvar=631.1997804640839 vminpu=0.85
new load.load_99_A bus1=bus_99.1 Phases=1 kv=157.6864406779661 kw=2436.037592853032 kvar=799.0203304557946 vminpu=0.85
new load.load_100_A bus1=bus_100.1 Phases=1 kv=157.6864406779661 kw=2657.024914400518 kvar=871.5041719233699 vminpu=0.85
new load.load_101_A bus1=bus_101.1 Phases=1 kv=157.6864406779661 kw=2845.0107395544183 kvar=933.1635225738493 vminpu=0.85
new load.load_102_A bus1=bus_102.1 Phases=1 kv=157.6864406779661 kw=2378.184099648496 kvar=780.0443846847068 vminpu=0.85
new load.load_103_A bus1=bus_103.1 Phases=1 kv=157.6864406779661 kw=3150.213110410227 kvar=1033.2699002145544 vminpu=0.85
new load.load_104_A bus1=bus_104.1 Phases=1 kv=157.6864406779661 kw=2277.991206725542 kvar=747.1811158059777 vminpu=0.85
new load.load_105_A bus1=bus_105.1 Phases=1 kv=157.6864406779661 kw=1809.9146381920632 kvar=593.6520013269967 vminpu=0.85
new load.load_106_A bus1=bus_106.1 Phases=1 kv=157.6864406779661 kw=2477.123110824197 kvar=812.4963803503366 vminpu=0.85
new load.load_107_A bus1=bus_107.1 Phases=1 kv=157.6864406779661 kw=2017.6297645515288 kvar=661.7825627729014 vminpu=0.85
new load.load_108_A bus1=bus_108.1 Phases=1 kv=157.6864406779661 kw=1668.9764926210237 kvar=547.4242895796958 vminpu=0.85
new load.load_109_A bus1=bus_109.1 Phases=1 kv=157.6864406779661 kw=1956.0497444937469 kvar=641.584316193949 vminpu=0.85
new load.load_110_A bus1=bus_110.1 Phases=1 kv=157.6864406779661 kw=1915.775081227297 kvar=628.3742266425535 vminpu=0.85
new load.load_111_A bus1=bus_111.1 Phases=1 kv=157.6864406779661 kw=1742.9319376833769 kvar=571.6816755601476 vminpu=0.85
new load.load_112_A bus1=bus_112.1 Phases=1 kv=157.6864406779661 kw=2583.7145078972485 kvar=847.4583585902975 vminpu=0.85
new load.load_113_A bus1=bus_113.1 Phases=1 kv=157.6864406779661 kw=2019.7647322751627 kvar=662.4828321862534 vminpu=0.85
new load.load_114_B bus1=bus_114.2 Phases=1 kv=157.6864406779661 kw=1761.0268805409096 kvar=577.6168168174183 vminpu=0.85
new load.load_114_C bus1=bus_114.3 Phases=1 kv=157.6864406779661 kw=680.1300863355833 kvar=223.08266831807134 vminpu=0.85
new load.load_115_C bus1=bus_115.3 Phases=1 kv=157.6864406779661 kw=2398.970881596684 kvar=786.8624491637124 vminpu=0.85
new load.load_116_A bus1=bus_116.1 Phases=1 kv=157.6864406779661 kw=1885.5123167738236 kvar=618.4480399018141 vminpu=0.85
new load.load_117_A bus1=bus_117.1 Phases=1 kv=157.6864406779661 kw=279.1155404348322 kvar=91.54989726262497 vminpu=0.85
new load.load_117_B bus1=bus_117.2 Phases=1 kv=157.6864406779661 kw=1849.5791219996051 kvar=606.6619520158705 vminpu=0.85

!---------------- SOLUTION ----------------

set controlmode=off
Set Voltagebases=[157.6864406779661]
calcv
Solve